@<TRIPOS>MOLECULE
heme_noFe.pdb
 80 84 0 0 0
SMALL
GASTEIGER

@<TRIPOS>ATOM
      1  CHA      -15.5600  -19.7210  -10.6460 C.2   508  HEM508     -0.0124
      2  CHB      -16.4520  -22.2960  -14.5150 C.2   508  HEM508     -0.0124
      3  CHC      -16.8140  -26.1480  -11.8200 C.2   508  HEM508     -0.0124
      4  CHD      -15.5520  -23.6430   -7.9980 C.2   508  HEM508     -0.0124
      5  C1A      -15.5970  -20.0500  -12.0140 C.ar  508  HEM508      0.0452
      6  C2A      -15.5440  -19.1830  -13.1210 C.ar  508  HEM508     -0.0186
      7  C3A      -15.7800  -19.9560  -14.2230 C.ar  508  HEM508     -0.0220
      8  C4A      -15.9760  -21.2510  -13.7640 C.ar  508  HEM508      0.0449
      9  CMA      -15.8110  -19.4710  -15.7460 C.3   508  HEM508     -0.0374
     10  CAA      -15.2680  -17.6780  -13.1420 C.3   508  HEM508     -0.0154
     11  CBA      -13.8040  -17.3800  -13.2960 C.3   508  HEM508      0.0488
     12  CGA      -13.4480  -15.9310  -13.4150 C.2   508  HEM508      0.3050
     13  O1A      -12.3760  -15.6410  -13.9490 O.2   508  HEM508     -0.2510
     14  O2A      -14.2090  -15.0420  -13.0600 O.3   508  HEM508     -0.4806
     15  C1B      -16.4760  -23.6570  -14.2360 C.2   508  HEM508      0.0697
     16  C2B      -16.8420  -24.6990  -15.1290 C.2   508  HEM508     -0.0198
     17  C3B      -17.0050  -25.8400  -14.2930 C.2   508  HEM508     -0.0173
     18  C4B      -16.7240  -25.3850  -12.9770 C.2   508  HEM508      0.0699
     19  CMB      -17.0040  -24.5590  -16.6340 C.3   508  HEM508     -0.0374
     20  CAB      -17.3670  -27.1780  -14.6340 C.3   508  HEM508     -0.0282
     21  CBB      -17.2050  -27.9260  -15.8960 C.3   508  HEM508     -0.0612
     22  C1C      -16.3630  -25.9030  -10.5290 C.ar  508  HEM508      0.0449
     23  C2C      -16.3300  -26.8300   -9.5140 C.ar  508  HEM508     -0.0220
     24  C3C      -15.9860  -26.1200   -8.3420 C.ar  508  HEM508     -0.0194
     25  C4C      -15.8330  -24.7770   -8.7680 C.ar  508  HEM508      0.0452
     26  CMC      -16.6180  -28.3670   -9.6540 C.3   508  HEM508     -0.0374
     27  CAC      -15.8060  -26.5190   -7.0290 C.3   508  HEM508     -0.0283
     28  CBC      -15.0860  -27.6250   -6.5260 C.3   508  HEM508     -0.0612
     29  C1D      -15.5610  -22.3340   -8.3620 C.2   508  HEM508      0.0697
     30  C2D      -15.4310  -21.2800   -7.4780 C.2   508  HEM508     -0.0198
     31  C3D      -15.2790  -20.1410   -8.2130 C.2   508  HEM508     -0.0165
     32  C4D      -15.3290  -20.5630   -9.5630 C.2   508  HEM508      0.0700
     33  CMD      -15.4470  -21.3450   -5.9370 C.3   508  HEM508     -0.0374
     34  CAD      -15.0920  -18.7150   -7.6490 C.3   508  HEM508     -0.0153
     35  CBD      -13.5780  -18.4190   -7.4350 C.3   508  HEM508      0.0488
     36  CGD      -13.1460  -17.0570   -6.8440 C.2   508  HEM508      0.3050
     37  O1D      -12.1060  -16.9550   -6.2190 O.3   508  HEM508     -0.4806
     38  O2D      -13.8670  -16.0610   -7.0050 O.2   508  HEM508     -0.2510
     39  NA       -15.8620  -21.3170  -12.4470 N.ar  508  HEM508     -0.3545
     40  NB       -16.4150  -24.1090  -12.9670 N.2   508  HEM508     -0.2472
     41  NC       -16.0690  -24.6860  -10.0990 N.ar  508  HEM508     -0.3545
     42  ND       -15.4950  -21.8910   -9.6050 N.2   508  HEM508     -0.2472
     43 H         -15.7254  -18.7284  -10.4172 H     508  HEM508      0.0659
     44 H         -16.8541  -22.0303  -15.4275 H     508  HEM508      0.0659
     45 H         -17.2987  -27.0512  -11.9397 H     508  HEM508      0.0659
     46 H         -15.3024  -23.8270   -7.0137 H     508  HEM508      0.0659
     47 H         -16.0210  -20.3055  -16.3819 H     508  HEM508      0.0278
     48 H         -14.8608  -19.0540  -16.0069 H     508  HEM508      0.0278
     49 H         -16.5720  -18.7288  -15.8686 H     508  HEM508      0.0278
     50 H         -15.7984  -17.2403  -13.9618 H     508  HEM508      0.0319
     51 H         -15.5939  -17.2677  -12.2091 H     508  HEM508      0.0319
     52 H         -13.2960  -17.7747  -12.4410 H     508  HEM508      0.0381
     53 H         -13.5092  -17.8307  -14.2206 H     508  HEM508      0.0381
     54 H         -15.0251  -15.2584  -12.6536 H     508  HEM508      0.2951
     55 H         -17.2848  -25.5032  -17.0519 H     508  HEM508      0.0278
     56 H         -16.0778  -24.2398  -17.0643 H     508  HEM508      0.0278
     57 H         -17.7635  -23.8355  -16.8452 H     508  HEM508      0.0278
     58 H         -16.8523  -27.7765  -13.9116 H     508  HEM508      0.0311
     59 H         -18.4223  -27.0171  -14.7077 H     508  HEM508      0.0311
     60 H         -16.1770  -28.1950  -16.0217 H     508  HEM508      0.0233
     61 H         -17.5163  -27.3134  -16.7162 H     508  HEM508      0.0233
     62 H         -17.8043  -28.8119  -15.8650 H     508  HEM508      0.0233
     63 H         -16.8509  -28.5948  -10.6732 H     508  HEM508      0.0278
     64 H         -17.4462  -28.6329   -9.0308 H     508  HEM508      0.0278
     65 H         -15.7532  -28.9208   -9.3534 H     508  HEM508      0.0278
     66 H         -16.7989  -26.6556   -6.6543 H     508  HEM508      0.0311
     67 H         -15.1272  -25.7482   -6.7290 H     508  HEM508      0.0311
     68 H         -15.6237  -28.5259   -6.7358 H     508  HEM508      0.0233
     69 H         -14.9646  -27.5203   -5.4681 H     508  HEM508      0.0233
     70 H         -14.1242  -27.6667   -6.9930 H     508  HEM508      0.0233
     71 H         -15.5807  -22.3595   -5.6242 H     508  HEM508      0.0278
     72 H         -16.2520  -20.7474   -5.5631 H     508  HEM508      0.0278
     73 H         -14.5194  -20.9732   -5.5547 H     508  HEM508      0.0278
     74 H         -15.6042  -18.6345   -6.7130 H     508  HEM508      0.0319
     75 H         -15.4924  -18.0076   -8.3448 H     508  HEM508      0.0319
     76 H         -13.1051  -18.5079   -8.3907 H     508  HEM508      0.0381
     77 H         -13.2874  -19.1232   -6.6836 H     508  HEM508      0.0381
     78 H         -11.5584  -17.7051   -6.0951 H     508  HEM508      0.2951
     79 H         -15.9510  -22.1229  -11.8886 H     508  HEM508      0.1659
     80 H         -16.0293  -23.8675  -10.6446 H     508  HEM508      0.1659
@<TRIPOS>BOND
     1    19    16    1
     2    21    20    1
     3     9     7    1
     4    16    17    2
     5    16    15    1
     6    20    17    1
     7     2    15    1
     8     2     8    2
     9    17    18    1
    10    15    40    2
    11     7     8   ar
    12     7     6   ar
    13    13    12    2
    14     8    39   ar
    15    12    11    1
    16    12    14    1
    17    11    10    1
    18    10     6    1
    19     6     5   ar
    20    18    40    1
    21    18     3    2
    22    39     5   ar
    23     5     1    2
    24     3    22    1
    25     1    32    1
    26    22    41   ar
    27    22    23   ar
    28    41    25   ar
    29    26    23    1
    30    42    32    2
    31    42    29    1
    32    32    31    1
    33    23    24   ar
    34    25    24   ar
    35    25     4    1
    36    29     4    2
    37    29    30    1
    38    24    27    1
    39    31    34    1
    40    31    30    2
    41    34    35    1
    42    30    33    1
    43    35    36    1
    44    27    28    1
    45    38    36    2
    46    36    37    1
    47     1    43    1
    48     2    44    1
    49     3    45    1
    50     4    46    1
    51     9    47    1
    52     9    48    1
    53     9    49    1
    54    10    50    1
    55    10    51    1
    56    11    52    1
    57    11    53    1
    58    14    54    1
    59    19    55    1
    60    19    56    1
    61    19    57    1
    62    20    58    1
    63    20    59    1
    64    21    60    1
    65    21    61    1
    66    21    62    1
    67    26    63    1
    68    26    64    1
    69    26    65    1
    70    27    66    1
    71    27    67    1
    72    28    68    1
    73    28    69    1
    74    28    70    1
    75    33    71    1
    76    33    72    1
    77    33    73    1
    78    34    74    1
    79    34    75    1
    80    35    76    1
    81    35    77    1
    82    37    78    1
    83    39    79    1
    84    41    80    1
