@<TRIPOS>MOLECULE
HEM
   80    84     1     0     0
SMALL
No Charge or Current Charge


@<TRIPOS>ATOM
1 CHA -15.5600 -19.7210 -10.6460 C.2 1 HEM -0.012400
2 CHB -16.4520 -22.2960 -14.5150 C.2 1 HEM -0.012400
3 CHC -16.8140 -26.1480 -11.8200 C.2 1 HEM -0.012400
4 CHD -15.5520 -23.6430 -7.9980 C.2 1 HEM -0.012400
5 C1A -15.5970 -20.0500 -12.0140 C.2 1 HEM 0.045200
6 C2A -15.5440 -19.1830 -13.1210 C.2 1 HEM -0.018600
7 C3A -15.7800 -19.9560 -14.2230 C.2 1 HEM -0.022000
8 C4A -15.9760 -21.2510 -13.7640 C.2 1 HEM 0.044900
9 CMA -15.8110 -19.4710 -15.7460 C.3 1 HEM -0.037400
10 CAA -15.2680 -17.6780 -13.1420 C.3 1 HEM -0.015400
11 CBA -13.8040 -17.3800 -13.2960 C.3 1 HEM 0.048800
12 CGA -13.4480 -15.9310 -13.4150 C.2 1 HEM 0.305000
13 O1A -12.3760 -15.6410 -13.9490 O.2 1 HEM -0.251000
14 O2A -14.2090 -15.0420 -13.0600 O.3 1 HEM -0.480600
15 C1B -16.4760 -23.6570 -14.2360 C.2 1 HEM 0.069700
16 C2B -16.8420 -24.6990 -15.1290 C.2 1 HEM -0.019800
17 C3B -17.0050 -25.8400 -14.2930 C.2 1 HEM -0.017300
18 C4B -16.7240 -25.3850 -12.9770 C.2 1 HEM 0.069900
19 CMB -17.0040 -24.5590 -16.6340 C.3 1 HEM -0.037400
20 CAB -17.3670 -27.1780 -14.6340 C.3 1 HEM -0.028200
21 CBB -17.2050 -27.9260 -15.8960 C.3 1 HEM -0.061200
22 C1C -16.3630 -25.9030 -10.5290 C.2 1 HEM 0.044900
23 C2C -16.3300 -26.8300 -9.5140 C.2 1 HEM -0.022000
24 C3C -15.9860 -26.1200 -8.3420 C.2 1 HEM -0.019400
25 C4C -15.8330 -24.7770 -8.7680 C.2 1 HEM 0.045200
26 CMC -16.6180 -28.3670 -9.6540 C.3 1 HEM -0.037400
27 CAC -15.8060 -26.5190 -7.0290 C.3 1 HEM -0.028300
28 CBC -15.0860 -27.6250 -6.5260 C.3 1 HEM -0.061200
29 C1D -15.5610 -22.3340 -8.3620 C.2 1 HEM 0.069700
30 C2D -15.4310 -21.2800 -7.4780 C.2 1 HEM -0.019800
31 C3D -15.2790 -20.1410 -8.2130 C.2 1 HEM -0.016500
32 C4D -15.3290 -20.5630 -9.5630 C.2 1 HEM 0.070000
33 CMD -15.4470 -21.3450 -5.9370 C.3 1 HEM -0.037400
34 CAD -15.0920 -18.7150 -7.6490 C.3 1 HEM -0.015300
35 CBD -13.5780 -18.4190 -7.4350 C.3 1 HEM 0.048800
36 CGD -13.1460 -17.0570 -6.8440 C.2 1 HEM 0.305000
37 O1D -12.1060 -16.9550 -6.2190 O.3 1 HEM -0.480600
38 O2D -13.8670 -16.0610 -7.0050 O.2 1 HEM -0.251000
39 NA -15.8620 -21.3170 -12.4470 N.pl3 1 HEM -0.354500
40 NB -16.4150 -24.1090 -12.9670 N.2 1 HEM -0.247200
41 NC -16.0690 -24.6860 -10.0990 N.pl3 1 HEM -0.354500
42 ND -15.4950 -21.8910 -9.6050 N.2 1 HEM -0.247200
43 H -15.7250 -18.7280 -10.4170 H 1 HEM 0.065900
44 H1 -16.8540 -22.0300 -15.4280 H 1 HEM 0.065900
45 H2 -17.2990 -27.0510 -11.9400 H 1 HEM 0.065900
46 H3 -15.3020 -23.8270 -7.0140 H 1 HEM 0.065900
47 H4 -16.0210 -20.3050 -16.3820 H 1 HEM 0.027800
48 H5 -14.8610 -19.0540 -16.0070 H 1 HEM 0.027800
49 H6 -16.5720 -18.7290 -15.8690 H 1 HEM 0.027800
50 H7 -15.7980 -17.2400 -13.9620 H 1 HEM 0.031900
51 H8 -15.5940 -17.2680 -12.2090 H 1 HEM 0.031900
52 H9 -13.2960 -17.7750 -12.4410 H 1 HEM 0.038100
53 H10 -13.5090 -17.8310 -14.2210 H 1 HEM 0.038100
54 H11 -15.0250 -15.2580 -12.6540 H 1 HEM 0.295100
55 H12 -17.2850 -25.5030 -17.0520 H 1 HEM 0.027800
56 H13 -16.0780 -24.2400 -17.0640 H 1 HEM 0.027800
57 H14 -17.7640 -23.8350 -16.8450 H 1 HEM 0.027800
58 H15 -16.8520 -27.7760 -13.9120 H 1 HEM 0.031100
59 H16 -18.4220 -27.0170 -14.7080 H 1 HEM 0.031100
60 H17 -16.1770 -28.1950 -16.0220 H 1 HEM 0.023300
61 H18 -17.5160 -27.3130 -16.7160 H 1 HEM 0.023300
62 H19 -17.8040 -28.8120 -15.8650 H 1 HEM 0.023300
63 H20 -16.8510 -28.5950 -10.6730 H 1 HEM 0.027800
64 H21 -17.4460 -28.6330 -9.0310 H 1 HEM 0.027800
65 H22 -15.7530 -28.9210 -9.3530 H 1 HEM 0.027800
66 H23 -16.7990 -26.6560 -6.6540 H 1 HEM 0.031100
67 H24 -15.1270 -25.7480 -6.7290 H 1 HEM 0.031100
68 H25 -15.6240 -28.5260 -6.7360 H 1 HEM 0.023300
69 H26 -14.9650 -27.5200 -5.4680 H 1 HEM 0.023300
70 H27 -14.1240 -27.6670 -6.9930 H 1 HEM 0.023300
71 H28 -15.5810 -22.3600 -5.6240 H 1 HEM 0.027800
72 H29 -16.2520 -20.7470 -5.5630 H 1 HEM 0.027800
73 H30 -14.5190 -20.9730 -5.5550 H 1 HEM 0.027800
74 H31 -15.6040 -18.6340 -6.7130 H 1 HEM 0.031900
75 H32 -15.4920 -18.0080 -8.3450 H 1 HEM 0.031900
76 H33 -13.1050 -18.5080 -8.3910 H 1 HEM 0.038100
77 H34 -13.2870 -19.1230 -6.6840 H 1 HEM 0.038100
78 H35 -11.5580 -17.7050 -6.0950 H 1 HEM 0.295100
79 H36 -15.9510 -22.1230 -11.8890 H 1 HEM 0.165900
80 H37 -16.0290 -23.8670 -10.6450 H 1 HEM 0.165900
@<TRIPOS>BOND
     1    19    16 1   
     2    21    20 1   
     3     9     7 1   
     4    16    17 2   
     5    16    15 1   
     6    20    17 1   
     7     2    15 1   
     8     2     8 2   
     9    17    18 1   
    10    15    40 2   
    11     7     8 1   
    12     7     6 2   
    13    13    12 2   
    14     8    39 1   
    15    12    11 1   
    16    12    14 1   
    17    11    10 1   
    18    10     6 1   
    19     6     5 1   
    20    18    40 1   
    21    18     3 2   
    22    39     5 1   
    23     5     1 2   
    24     3    22 1   
    25     1    32 1   
    26    22    41 2   
    27    22    23 1   
    28    41    25 1   
    29    26    23 1   
    30    42    32 2   
    31    42    29 1   
    32    32    31 1   
    33    23    24 2   
    34    25    24 1   
    35    25     4 1   
    36    29     4 2   
    37    29    30 1   
    38    24    27 1   
    39    31    34 1   
    40    31    30 2   
    41    34    35 1   
    42    30    33 1   
    43    35    36 1   
    44    27    28 1   
    45    38    36 2   
    46    36    37 1   
    47     1    43 1   
    48     2    44 1   
    49     3    45 1   
    50     4    46 1   
    51     9    47 1   
    52     9    48 1   
    53     9    49 1   
    54    10    50 1   
    55    10    51 1   
    56    11    52 1   
    57    11    53 1   
    58    14    54 1   
    59    19    55 1   
    60    19    56 1   
    61    19    57 1   
    62    20    58 1   
    63    20    59 1   
    64    21    60 1   
    65    21    61 1   
    66    21    62 1   
    67    26    63 1   
    68    26    64 1   
    69    26    65 1   
    70    27    66 1   
    71    27    67 1   
    72    28    68 1   
    73    28    69 1   
    74    28    70 1   
    75    33    71 1   
    76    33    72 1   
    77    33    73 1   
    78    34    74 1   
    79    34    75 1   
    80    35    76 1   
    81    35    77 1   
    82    37    78 1   
    83    39    79 1   
    84    41    80 1   
@<TRIPOS>SUBSTRUCTURE
1 HEM 1 GROUP 0 **** **** 0 ROOT
